*Heading
** Job name: Job-1 Model name: Model-1
** Generated by: Abaqus/CAE 2022
*Preprint, echo=NO, model=NO, history=NO, contact=NO
**
** PARTS
**
*Part, name=Part-1
*Node
      1,          0.5,          0.5,          0.5
      2,          0.5,  0.474999994,          0.5
      3,          0.5,  0.449999988,          0.5
      4,          0.5,  0.425000012,          0.5
      5,          0.5,  0.400000006,          0.5
      6,          0.5,        0.375,          0.5
      7,          0.5,  0.349999994,          0.5
      8,          0.5,  0.324999988,          0.5
      9,          0.5,  0.300000012,          0.5
     10,          0.5,  0.275000006,          0.5
     11,          0.5,         0.25,          0.5
     12,          0.5,  0.224999994,          0.5
     13,          0.5,  0.200000003,          0.5
     14,          0.5,  0.174999997,          0.5
     15,          0.5,  0.150000006,          0.5
     16,          0.5,        0.125,          0.5
     17,          0.5,  0.100000001,          0.5
     18,          0.5,  0.075000003,          0.5
     19,          0.5, 0.0500000007,          0.5
     20,          0.5, 0.0250000004,          0.5
** ... 35281 like lines cut
*Element, type=C3D8R
    1,   862,   863,   904,   903,     1,     2,    43,    42
    2,   863,   864,   905,   904,     2,     3,    44,    43
    3,   864,   865,   906,   905,     3,     4,    45,    44
    4,   865,   866,   907,   906,     4,     5,    46,    45
    5,   866,   867,   908,   907,     5,     6,    47,    46
    6,   867,   868,   909,   908,     6,     7,    48,    47
    7,   868,   869,   910,   909,     7,     8,    49,    48
    8,   869,   870,   911,   910,     8,     9,    50,    49
    9,   870,   871,   912,   911,     9,    10,    51,    50
   10,   871,   872,   913,   912,    10,    11,    52,    51
   11,   872,   873,   914,   913,    11,    12,    53,    52
   12,   873,   874,   915,   914,    12,    13,    54,    53
   13,   874,   875,   916,   915,    13,    14,    55,    54
   14,   875,   876,   917,   916,    14,    15,    56,    55
   15,   876,   877,   918,   917,    15,    16,    57,    56
   16,   877,   878,   919,   918,    16,    17,    58,    57
   17,   878,   879,   920,   919,    17,    18,    59,    58
   18,   879,   880,   921,   920,    18,    19,    60,    59
   19,   880,   881,   922,   921,    19,    20,    61,    60
   20,   881,   882,   923,   922,    20,    21,    62,    61
** ... 31980 like lines cut
*Nset, nset=Set-1, generate
     1,  35301,      1
*Elset, elset=Set-1, generate
     1,  32000,      1
** Section: Section-1
*Solid Section, elset=Set-1, material=Material-1
,
*End Part
**  
**
** ASSEMBLY
**
*Assembly, name=Assembly
**  
*Instance, name=Part-1-1, part=Part-1
*End Instance
**  
*Nset, nset=Set-1, instance=Part-1-1, generate
    41,  35301,     41
*Elset, elset=Set-1, instance=Part-1-1, generate
    40,  32000,     40
*Nset, nset=Set-2, instance=Part-1-1, generate
     1,  35261,     41
*Elset, elset=Set-2, instance=Part-1-1, generate
     1,  31961,     40
*End Assembly
** 
** MATERIALS
** 
*Material, name=Material-1
*Density
7850.,
*Elastic
 2.1e+10, 0.3
** 
** PREDEFINED FIELDS
** 
** Name: Predefined Field-1   Type: Velocity
*Initial Conditions, type=VELOCITY
Set-2, 1, -0.5
Set-2, 2, -0.2
Set-2, 3, 0.3
** ----------------------------------------------------------------
** 
** STEP: Step-1
** 
*Step, name=Step-1, nlgeom=YES
*Dynamic, Explicit
, 0.1
*Bulk Viscosity
0.06, 1.2
** 
** BOUNDARY CONDITIONS
** 
** Name: BC-1 Type: Symmetry/Antisymmetry/Encastre
*Boundary
Set-1, PINNED
** 
** LOADS
** 
** Name: Load-1   Type: Gravity
*Dload
, GRAV, 9.81, 0., -1., 0.
** 
** OUTPUT REQUESTS
** 
*Restart, write, number interval=1, time marks=NO
** 
** FIELD OUTPUT: F-Output-1
** 
*Output, field, variable=PRESELECT
** 
** HISTORY OUTPUT: H-Output-1
** 
*Output, history, variable=PRESELECT
*End Step
