*Heading
** Job name: Job-1 Model name: Model-1
** Generated by: Abaqus/CAE 2022
*Preprint, echo=NO, model=NO, history=NO, contact=NO
**
** PARTS
**
*Part, name=Part-1
*Node
      1,          0.5,          0.5,          0.5
      2,          0.5,  0.400000006,          0.5
      3,          0.5,  0.300000012,          0.5
      4,          0.5,  0.200000003,          0.5
      5,          0.5,  0.100000001,          0.5
      6,          0.5,           0.,          0.5
      7,          0.5,          0.5,  0.400000006
      8,          0.5,  0.400000006,  0.400000006
      9,          0.5,  0.300000012,  0.400000006
     10,          0.5,  0.200000003,  0.400000006
     11,          0.5,  0.100000001,  0.400000006
     12,          0.5,           0.,  0.400000006
     13,          0.5,          0.5,  0.300000012
     14,          0.5,  0.400000006,  0.300000012
     15,          0.5,  0.300000012,  0.300000012
     16,          0.5,  0.200000003,  0.300000012
     17,          0.5,  0.100000001,  0.300000012
     18,          0.5,           0.,  0.300000012
     19,          0.5,          0.5,  0.200000003
     20,          0.5,  0.400000006,  0.200000003
** ... 196 like lines cut
*Element, type=C3D8R
  1,  37,  38,  44,  43,   1,   2,   8,   7
  2,  38,  39,  45,  44,   2,   3,   9,   8
  3,  39,  40,  46,  45,   3,   4,  10,   9
  4,  40,  41,  47,  46,   4,   5,  11,  10
  5,  41,  42,  48,  47,   5,   6,  12,  11
  6,  43,  44,  50,  49,   7,   8,  14,  13
  7,  44,  45,  51,  50,   8,   9,  15,  14
  8,  45,  46,  52,  51,   9,  10,  16,  15
  9,  46,  47,  53,  52,  10,  11,  17,  16
 10,  47,  48,  54,  53,  11,  12,  18,  17
 11,  49,  50,  56,  55,  13,  14,  20,  19
 12,  50,  51,  57,  56,  14,  15,  21,  20
 13,  51,  52,  58,  57,  15,  16,  22,  21
 14,  52,  53,  59,  58,  16,  17,  23,  22
 15,  53,  54,  60,  59,  17,  18,  24,  23
 16,  55,  56,  62,  61,  19,  20,  26,  25
 17,  56,  57,  63,  62,  20,  21,  27,  26
 18,  57,  58,  64,  63,  21,  22,  28,  27
 19,  58,  59,  65,  64,  22,  23,  29,  28
 20,  59,  60,  66,  65,  23,  24,  30,  29
** ... 105 like lines cut
*Nset, nset=Set-1, generate
   1,  216,    1
*Elset, elset=Set-1, generate
   1,  125,    1
** Section: Section-1
*Solid Section, elset=Set-1, material=Material-1
,
*End Part
**  
**
** ASSEMBLY
**
*Assembly, name=Assembly
**  
*Instance, name=Part-1-1, part=Part-1
*End Instance
**  
*Nset, nset=Set-1, instance=Part-1-1, generate
  1,  36,   1
*Elset, elset=Set-1, instance=Part-1-1, generate
  1,  25,   1
*Nset, nset=Set-2, instance=Part-1-1, generate
 181,  216,    1
*Elset, elset=Set-2, instance=Part-1-1, generate
 101,  125,    1
*Nset, nset=Set-3, instance=Part-1-1
  1, 31
*End Assembly
** 
** MATERIALS
** 
*Material, name=Material-1
*Density
7850.,
*Elastic
 2.06e+11, 0.3
** 
** PREDEFINED FIELDS
** 
** Name: Predefined Field-1   Type: Velocity
*Initial Conditions, type=VELOCITY
Set-1, 1, 1.
** ----------------------------------------------------------------
** 
** STEP: Step-1
** 
*Step, name=Step-1, nlgeom=YES
*Dynamic, Explicit
, 0.1
*Bulk Viscosity
0.06, 1.2
** 
** BOUNDARY CONDITIONS
** 
** Name: BC-1 Type: Symmetry/Antisymmetry/Encastre
*Boundary
Set-2, PINNED
** 
** OUTPUT REQUESTS
** 
*Restart, write, number interval=1, time marks=NO
** 
** FIELD OUTPUT: F-Output-1
** 
*Output, field, variable=PRESELECT
** 
** HISTORY OUTPUT: H-Output-1
** 
*Output, history, variable=PRESELECT
*End Step
** ----------------------------------------------------------------
** 
** STEP: Step-2
** 
*Step, name=Step-2, nlgeom=YES
*Dynamic, Explicit
, 0.2
*Bulk Viscosity
0.06, 1.2
** 
** BOUNDARY CONDITIONS
** 
** Name: BC-2 Type: Velocity/Angular velocity
*Boundary, type=VELOCITY
Set-3, 2, 2, 1.
** 
** OUTPUT REQUESTS
** 
*Restart, write, number interval=1, time marks=NO
** 
** FIELD OUTPUT: F-Output-1
** 
*Output, field, variable=PRESELECT
** 
** HISTORY OUTPUT: H-Output-1
** 
*Output, history, variable=PRESELECT
*End Step
