*Heading
** Job name: test_part1 Model name: Model-1
** Generated by: Abaqus/CAE 2022
*Preprint, echo=NO, model=NO, history=NO, contact=NO
**
** PARTS
**
*Part, name=Part-1
*Node
      1,          0.5,          0.5,          0.5
      2,          0.5,         0.25,          0.5
      3,          0.5,           0.,          0.5
      4,          0.5,          0.5,         0.25
      5,          0.5,         0.25,         0.25
      6,          0.5,           0.,         0.25
      7,          0.5,          0.5,           0.
      8,          0.5,         0.25,           0.
      9,          0.5,           0.,           0.
     10,         0.25,          0.5,          0.5
     11,         0.25,         0.25,          0.5
     12,         0.25,           0.,          0.5
     13,         0.25,          0.5,         0.25
     14,         0.25,         0.25,         0.25
     15,         0.25,           0.,         0.25
     16,         0.25,          0.5,           0.
     17,         0.25,         0.25,           0.
     18,         0.25,           0.,           0.
     19,           0.,          0.5,          0.5
     20,           0.,         0.25,          0.5
** ... 7 like lines cut
*Element, type=C3D8R
1, 10, 11, 14, 13,  1,  2,  5,  4
2, 11, 12, 15, 14,  2,  3,  6,  5
3, 13, 14, 17, 16,  4,  5,  8,  7
4, 14, 15, 18, 17,  5,  6,  9,  8
5, 19, 20, 23, 22, 10, 11, 14, 13
6, 20, 21, 24, 23, 11, 12, 15, 14
7, 22, 23, 26, 25, 13, 14, 17, 16
8, 23, 24, 27, 26, 14, 15, 18, 17
*Nset, nset=Set-1, generate
  1,  27,   1
*Elset, elset=Set-1, generate
 1,  8,  1
** Section: Section-1
*Solid Section, elset=Set-1, material=Material-1
,
*End Part
**  
*Part, name=Part-2
*Node
      1, -0.0282842703, 0.0141421352,           0.
      2, -0.0299999993, -0.00999999978,           0.
      3, -0.0141421352, -0.0282842703,           0.
      4, 0.00999999978, -0.0299999993,           0.
      5, 0.0282842703, -0.0141421352,           0.
      6, 0.0299999993, 0.00999999978,           0.
      7, 0.0141421352, 0.0282842703,           0.
      8, -0.00999999978, 0.0299999993,           0.
      9, 3.17973391e-11, -9.53920276e-11,           0.
     10, -0.0282842703, 0.0141421352,  0.100000001
     11, -0.0299999993, -0.00999999978,  0.100000001
     12, -0.0141421352, -0.0282842703,  0.100000001
     13, 0.00999999978, -0.0299999993,  0.100000001
     14, 0.0282842703, -0.0141421352,  0.100000001
     15, 0.0299999993, 0.00999999978,  0.100000001
     16, 0.0141421352, 0.0282842703,  0.100000001
     17, -0.00999999978, 0.0299999993,  0.100000001
     18, 3.17973391e-11, -9.53920276e-11,  0.100000001
     19, -0.0282842703, 0.0141421352,  0.200000003
     20, -0.0299999993, -0.00999999978,  0.200000003
** ... 34 like lines cut
*Element, type=C3D8R
 1, 18, 10, 17, 16,  9,  1,  8,  7
 2, 15, 14, 18, 16,  6,  5,  9,  7
 3, 18, 14, 13, 12,  9,  5,  4,  3
 4, 11, 10, 18, 12,  2,  1,  9,  3
 5, 27, 19, 26, 25, 18, 10, 17, 16
 6, 24, 23, 27, 25, 15, 14, 18, 16
 7, 27, 23, 22, 21, 18, 14, 13, 12
 8, 20, 19, 27, 21, 11, 10, 18, 12
 9, 36, 28, 35, 34, 27, 19, 26, 25
10, 33, 32, 36, 34, 24, 23, 27, 25
11, 36, 32, 31, 30, 27, 23, 22, 21
12, 29, 28, 36, 30, 20, 19, 27, 21
13, 45, 37, 44, 43, 36, 28, 35, 34
14, 42, 41, 45, 43, 33, 32, 36, 34
15, 45, 41, 40, 39, 36, 32, 31, 30
16, 38, 37, 45, 39, 29, 28, 36, 30
17, 54, 46, 53, 52, 45, 37, 44, 43
18, 51, 50, 54, 52, 42, 41, 45, 43
19, 54, 50, 49, 48, 45, 41, 40, 39
20, 47, 46, 54, 48, 38, 37, 45, 39
*Nset, nset=Set-1, generate
  1,  54,   1
*Elset, elset=Set-1, generate
  1,  20,   1
** Section: Section-1
*Solid Section, elset=Set-1, material=Material-1
,
*End Part
**  
**
** ASSEMBLY
**
*Assembly, name=Assembly
**  
*Instance, name=Part-1-1, part=Part-1
*End Instance
**  
*Instance, name=Part-2-1, part=Part-2
*End Instance
**  
*Nset, nset=Set-1, instance=Part-1-1, generate
 1,  9,  1
*Elset, elset=Set-1, instance=Part-1-1, generate
 1,  4,  1
*Nset, nset=Set-2, instance=Part-1-1, generate
 19,  27,   1
*Elset, elset=Set-2, instance=Part-1-1, generate
 5,  8,  1
*Nset, nset=Set-3, instance=Part-1-1
 1, 7
*Nset, nset=Set-4, instance=Part-1-1, generate
  3,  27,   3
*Elset, elset=Set-4, instance=Part-1-1, generate
 2,  8,  2
*Nset, nset=Set-5, instance=Part-1-1, generate
  3,  27,   3
*Elset, elset=Set-5, instance=Part-1-1, generate
 2,  8,  2
*Nset, nset=Set-6, instance=Part-2-1, generate
 46,  53,   1
*Elset, elset=Set-6, instance=Part-2-1, generate
 17,  20,   1
*End Assembly
** 
** MATERIALS
** 
*Material, name=Material-1
*Density
7850.,
*Elastic
 2.06e+11, 0.3
** ----------------------------------------------------------------
** 
** STEP: Step-1
** 
*Step, name=Step-1, nlgeom=YES
*Dynamic, Explicit
, 0.1
*Bulk Viscosity
0.06, 1.2
** 
** OUTPUT REQUESTS
** 
*Restart, write, number interval=1, time marks=NO
** 
** FIELD OUTPUT: F-Output-1
** 
*Output, field, variable=PRESELECT
** 
** HISTORY OUTPUT: H-Output-1
** 
*Output, history, variable=PRESELECT
*End Step
