*Heading
** Job name: test_part1 Model name: Model-1
** Generated by: Abaqus/CAE 2022
*Preprint, echo=NO, model=NO, history=NO, contact=NO
**
** PARTS
**
*Part, name=Part-1
*Node
      1,  0.200000003,  0.200000003,  0.200000003
      2,  0.200000003,  0.100000001,  0.200000003
      3,  0.200000003,           0.,  0.200000003
      4,  0.200000003,  0.200000003,  0.100000001
      5,  0.200000003,  0.100000001,  0.100000001
      6,  0.200000003,           0.,  0.100000001
      7,  0.200000003,  0.200000003,           0.
      8,  0.200000003,  0.100000001,           0.
      9,  0.200000003,           0.,           0.
     10,  0.100000001,  0.200000003,  0.200000003
     11,  0.100000001,  0.100000001,  0.200000003
     12,  0.100000001,           0.,  0.200000003
     13,  0.100000001,  0.200000003,  0.100000001
     14,  0.100000001,  0.100000001,  0.100000001
     15,  0.100000001,           0.,  0.100000001
     16,  0.100000001,  0.200000003,           0.
     17,  0.100000001,  0.100000001,           0.
     18,  0.100000001,           0.,           0.
     19,           0.,  0.200000003,  0.200000003
     20,           0.,  0.100000001,  0.200000003
** ... 7 like lines cut
*Element, type=C3D8R
1, 10, 11, 14, 13,  1,  2,  5,  4
2, 11, 12, 15, 14,  2,  3,  6,  5
3, 13, 14, 17, 16,  4,  5,  8,  7
4, 14, 15, 18, 17,  5,  6,  9,  8
5, 19, 20, 23, 22, 10, 11, 14, 13
6, 20, 21, 24, 23, 11, 12, 15, 14
7, 22, 23, 26, 25, 13, 14, 17, 16
8, 23, 24, 27, 26, 14, 15, 18, 17
*Nset, nset=Set-1, generate
  1,  27,   1
*Elset, elset=Set-1, generate
 1,  8,  1
** Section: Section-1
*Solid Section, elset=Set-1, material=Material-1
,
*End Part
**  
*Part, name=Part-2
*Node
      1,  0.449999988, -0.200000003,  0.200000003
      2,  0.449999988, -0.100000001,  0.200000003
      3,  0.449999988,           0.,  0.200000003
      4,  0.449999988, -0.200000003,  0.100000001
      5,  0.449999988, -0.100000001,  0.100000001
      6,  0.449999988,           0.,  0.100000001
      7,  0.449999988, -0.200000003,           0.
      8,  0.449999988, -0.100000001,           0.
      9,  0.449999988,           0.,           0.
     10,  0.550000012, -0.200000003,  0.200000003
     11,  0.550000012, -0.100000001,  0.200000003
     12,  0.550000012,           0.,  0.200000003
     13,  0.550000012, -0.200000003,  0.100000001
     14,  0.550000012, -0.100000001,  0.100000001
     15,  0.550000012,           0.,  0.100000001
     16,  0.550000012, -0.200000003,           0.
     17,  0.550000012, -0.100000001,           0.
     18,  0.550000012,           0.,           0.
     19,  0.649999976, -0.200000003,  0.200000003
     20,  0.649999976, -0.100000001,  0.200000003
** ... 7 like lines cut
*Element, type=C3D8R
1, 10, 11, 14, 13,  1,  2,  5,  4
2, 11, 12, 15, 14,  2,  3,  6,  5
3, 13, 14, 17, 16,  4,  5,  8,  7
4, 14, 15, 18, 17,  5,  6,  9,  8
5, 19, 20, 23, 22, 10, 11, 14, 13
6, 20, 21, 24, 23, 11, 12, 15, 14
7, 22, 23, 26, 25, 13, 14, 17, 16
8, 23, 24, 27, 26, 14, 15, 18, 17
*Nset, nset=Set-1, generate
  1,  27,   1
*Elset, elset=Set-1, generate
 1,  8,  1
** Section: Section-1
*Solid Section, elset=Set-1, material=Material-1
,
*End Part
**  
**
** ASSEMBLY
**
*Assembly, name=Assembly
**  
*Instance, name=Part-1-1, part=Part-1
*End Instance
**  
*Instance, name=Part-2-2, part=Part-2
*End Instance
**  
*Nset, nset=Set-1, instance=Part-1-1, generate
 1,  9,  1
*Nset, nset=Set-1, instance=Part-2-2, generate
 19,  27,   1
*Elset, elset=Set-1, instance=Part-1-1, generate
 1,  4,  1
*Elset, elset=Set-1, instance=Part-2-2, generate
 5,  8,  1
*Nset, nset=Set-2, instance=Part-1-1, generate
 19,  27,   1
*Nset, nset=Set-2, instance=Part-2-2, generate
 1,  9,  1
*Elset, elset=Set-2, instance=Part-1-1, generate
 5,  8,  1
*Elset, elset=Set-2, instance=Part-2-2, generate
 1,  4,  1
*End Assembly
** 
** MATERIALS
** 
*Material, name=Material-1
*Density
7850.,
*Elastic
 2.06e+11, 0.3
** 
** BOUNDARY CONDITIONS
** 
** Name: BC-1 Type: Symmetry/Antisymmetry/Encastre
*Boundary
Set-1, PINNED
** 
** PREDEFINED FIELDS
** 
** Name: Predefined Field-1   Type: Velocity
*Initial Conditions, type=VELOCITY
Set-2, 1, -1.
** ----------------------------------------------------------------
** 
** STEP: Step-1
** 
*Step, name=Step-1, nlgeom=YES
*Dynamic, Explicit
, 0.1
*Bulk Viscosity
0.06, 1.2
** 
** OUTPUT REQUESTS
** 
*Restart, write, number interval=1, time marks=NO
** 
** FIELD OUTPUT: F-Output-1
** 
*Output, field, variable=PRESELECT
** 
** HISTORY OUTPUT: H-Output-1
** 
*Output, history, variable=PRESELECT
*End Step
