*Heading
** Job name: Job-5 Model name: Model-1
** Generated by: Abaqus/CAE 2022
*Preprint, echo=NO, model=NO, history=NO, contact=NO
**
** PARTS
**
*Part, name=Part-1
*Node
      1,          0.5,          0.5,          0.5
      2,          0.5,  0.400000006,          0.5
      3,          0.5,  0.300000012,          0.5
      4,          0.5,  0.200000003,          0.5
      5,          0.5,  0.100000001,          0.5
      6,          0.5,           0.,          0.5
      7,          0.5,          0.5,  0.400000006
      8,          0.5,  0.400000006,  0.400000006
      9,          0.5,  0.300000012,  0.400000006
     10,          0.5,  0.200000003,  0.400000006
     11,          0.5,  0.100000001,  0.400000006
     12,          0.5,           0.,  0.400000006
     13,          0.5,          0.5,  0.300000012
     14,          0.5,  0.400000006,  0.300000012
     15,          0.5,  0.300000012,  0.300000012
     16,          0.5,  0.200000003,  0.300000012
     17,          0.5,  0.100000001,  0.300000012
     18,          0.5,           0.,  0.300000012
     19,          0.5,          0.5,  0.200000003
     20,          0.5,  0.400000006,  0.200000003
** ... 196 like lines cut
*Element, type=C3D8R
  1,  37,  38,  44,  43,   1,   2,   8,   7
  2,  38,  39,  45,  44,   2,   3,   9,   8
  3,  39,  40,  46,  45,   3,   4,  10,   9
  4,  40,  41,  47,  46,   4,   5,  11,  10
  5,  41,  42,  48,  47,   5,   6,  12,  11
  6,  43,  44,  50,  49,   7,   8,  14,  13
  7,  44,  45,  51,  50,   8,   9,  15,  14
  8,  45,  46,  52,  51,   9,  10,  16,  15
  9,  46,  47,  53,  52,  10,  11,  17,  16
 10,  47,  48,  54,  53,  11,  12,  18,  17
 11,  49,  50,  56,  55,  13,  14,  20,  19
 12,  50,  51,  57,  56,  14,  15,  21,  20
 13,  51,  52,  58,  57,  15,  16,  22,  21
 14,  52,  53,  59,  58,  16,  17,  23,  22
 15,  53,  54,  60,  59,  17,  18,  24,  23
 16,  55,  56,  62,  61,  19,  20,  26,  25
 17,  56,  57,  63,  62,  20,  21,  27,  26
 18,  57,  58,  64,  63,  21,  22,  28,  27
 19,  58,  59,  65,  64,  22,  23,  29,  28
 20,  59,  60,  66,  65,  23,  24,  30,  29
** ... 105 like lines cut
*Nset, nset=Set-1, generate
   1,  216,    1
*Elset, elset=Set-1, generate
   1,  125,    1
** Section: Section-1
*Solid Section, elset=Set-1, material=Material-1
,
*End Part
**  
*Part, name=Part-2
*Node
      1,  -2.79999995,           0.,           1.
      2,  -2.79999995,  0.100000001,           1.
      3,  -2.79999995,  0.200000003,           1.
      4,  -2.79999995,  0.300000012,           1.
      5,  -2.79999995,  0.400000006,           1.
      6,  -2.79999995,          0.5,           1.
      7,  -2.79999995,  0.600000024,           1.
      8,  -2.79999995,  0.699999988,           1.
      9,  -2.79999995,  0.800000012,           1.
     10,  -2.79999995,           0.,  0.899999976
     11,  -2.79999995,  0.100000001,  0.899999976
     12,  -2.79999995,  0.200000003,  0.899999976
     13,  -2.79999995,  0.300000012,  0.899999976
     14,  -2.79999995,  0.400000006,  0.899999976
     15,  -2.79999995,          0.5,  0.899999976
     16,  -2.79999995,  0.600000024,  0.899999976
     17,  -2.79999995,  0.699999988,  0.899999976
     18,  -2.79999995,  0.800000012,  0.899999976
     19,  -2.79999995,           0.,  0.800000012
     20,  -2.79999995,  0.100000001,  0.800000012
** ... 871 like lines cut
*Element, type=C3D8R
  1, 100, 101, 110, 109,   1,   2,  11,  10
  2, 101, 102, 111, 110,   2,   3,  12,  11
  3, 102, 103, 112, 111,   3,   4,  13,  12
  4, 103, 104, 113, 112,   4,   5,  14,  13
  5, 104, 105, 114, 113,   5,   6,  15,  14
  6, 105, 106, 115, 114,   6,   7,  16,  15
  7, 106, 107, 116, 115,   7,   8,  17,  16
  8, 107, 108, 117, 116,   8,   9,  18,  17
  9, 109, 110, 119, 118,  10,  11,  20,  19
 10, 110, 111, 120, 119,  11,  12,  21,  20
 11, 111, 112, 121, 120,  12,  13,  22,  21
 12, 112, 113, 122, 121,  13,  14,  23,  22
 13, 113, 114, 123, 122,  14,  15,  24,  23
 14, 114, 115, 124, 123,  15,  16,  25,  24
 15, 115, 116, 125, 124,  16,  17,  26,  25
 16, 116, 117, 126, 125,  17,  18,  27,  26
 17, 118, 119, 128, 127,  19,  20,  29,  28
 18, 119, 120, 129, 128,  20,  21,  30,  29
 19, 120, 121, 130, 129,  21,  22,  31,  30
 20, 121, 122, 131, 130,  22,  23,  32,  31
** ... 620 like lines cut
*Nset, nset=Set-1, generate
   1,  891,    1
*Elset, elset=Set-1, generate
   1,  640,    1
** Section: Section-1
*Solid Section, elset=Set-1, material=Material-1
,
*End Part
**  
**
** ASSEMBLY
**
*Assembly, name=Assembly
**  
*Instance, name=Part-1-1, part=Part-1
*End Instance
**  
*Instance, name=Part-2-1, part=Part-2
          1.,           0.,         -0.5
*End Instance
**  
*Instance, name=Part-1-2, part=Part-1
        0.55,           0.,           0.
*End Instance
**  
*Nset, nset=Set-1, instance=Part-1-1, generate
  1,  36,   1
*Elset, elset=Set-1, instance=Part-1-1, generate
  1,  25,   1
*Nset, nset=Set-2, instance=Part-1-1, generate
 181,  216,    1
*Elset, elset=Set-2, instance=Part-1-1, generate
 101,  125,    1
*Nset, nset=Set-3, instance=Part-1-1, generate
  6,  36,   6
*Elset, elset=Set-3, instance=Part-1-1, generate
  5,  25,   5
*Nset, nset=Set-4, instance=Part-1-1, generate
  1,  31,   6
*Elset, elset=Set-4, instance=Part-1-1, generate
  1,  21,   5
*Nset, nset=Set-5, instance=Part-2-1, generate
   1,  891,    1
*Elset, elset=Set-5, instance=Part-2-1, generate
   1,  640,    1
*Nset, nset=Set-6, instance=Part-1-2, generate
   1,  211,    6
*Elset, elset=Set-6, instance=Part-1-2, generate
   1,  121,    5
*Nset, nset=Set-7, instance=Part-1-2, generate
   6,  216,    6
*Elset, elset=Set-7, instance=Part-1-2, generate
   5,  125,    5
*End Assembly
** 
** MATERIALS
** 
*Material, name=Material-1
*Density
7850.,
*Elastic
 2.06e+11, 0.3
** 
** BOUNDARY CONDITIONS
** 
** Name: BC-1 Type: Symmetry/Antisymmetry/Encastre
*Boundary
Set-2, PINNED
** Name: BC-4 Type: Symmetry/Antisymmetry/Encastre
*Boundary
Set-6, PINNED
** 
** PREDEFINED FIELDS
** 
** Name: Predefined Field-1   Type: Velocity
*Initial Conditions, type=VELOCITY
Set-1, 2, -0.25
** Name: Predefined Field-2   Type: Velocity
*Initial Conditions, type=VELOCITY
Set-5, 1, 0.
Set-5, 2, -0.25
** Name: Predefined Field-3   Type: Velocity
*Initial Conditions, type=VELOCITY
Set-7, 1, 1.
** ----------------------------------------------------------------
** 
** STEP: Step-1
** 
*Step, name=Step-1, nlgeom=YES
*Dynamic, Explicit
, 0.1
*Bulk Viscosity
0.06, 1.2
** 
** LOADS
** 
** Name: Load-1   Type: Gravity
*Dload
, GRAV, 20., 0., -1., 0.
** 
** OUTPUT REQUESTS
** 
*Restart, write, number interval=1, time marks=NO
** 
** FIELD OUTPUT: F-Output-1
** 
*Output, field, variable=PRESELECT
** 
** HISTORY OUTPUT: H-Output-1
** 
*Output, history, variable=PRESELECT
*End Step
** ----------------------------------------------------------------
** 
** STEP: Step-2
** 
*Step, name=Step-2, nlgeom=YES
*Dynamic, Explicit
, 0.15
*Bulk Viscosity
0.06, 1.2
** 
** BOUNDARY CONDITIONS
** 
** Name: BC-2 Type: Velocity/Angular velocity
*Boundary, type=VELOCITY
Set-3, 1, 1, -0.05
** Name: BC-3 Type: Velocity/Angular velocity
*Boundary, type=VELOCITY
Set-4, 1, 1, 0.1
** 
** OUTPUT REQUESTS
** 
*Restart, write, number interval=1, time marks=NO
** 
** FIELD OUTPUT: F-Output-1
** 
*Output, field, variable=PRESELECT
** 
** HISTORY OUTPUT: H-Output-1
** 
*Output, history, variable=PRESELECT
*End Step
** ----------------------------------------------------------------
** 
** STEP: Step-3
** 
*Step, name=Step-3, nlgeom=YES
*Dynamic, Explicit
, 0.2
*Bulk Viscosity
0.06, 1.2
** 
** BOUNDARY CONDITIONS
** 
** Name: BC-1 Type: Symmetry/Antisymmetry/Encastre
*Boundary, op=NEW
Set-2, PINNED
** Name: BC-2 Type: Velocity/Angular velocity
*Boundary, op=NEW, type=VELOCITY
Set-3, 1, 1, -0.05
** Name: BC-3 Type: Velocity/Angular velocity
*Boundary, op=NEW
** Name: BC-4 Type: Symmetry/Antisymmetry/Encastre
*Boundary, op=NEW
Set-6, PINNED
** 
** LOADS
** 
** Name: Load-1   Type: Gravity
*Dload, op=NEW
** 
** OUTPUT REQUESTS
** 
*Restart, write, number interval=1, time marks=NO
** 
** FIELD OUTPUT: F-Output-1
** 
*Output, field, variable=PRESELECT
** 
** HISTORY OUTPUT: H-Output-1
** 
*Output, history, variable=PRESELECT
*End Step
