*Heading
** Job name: test_single Model name: Model-1
** Generated by: Abaqus/CAE 2022
*Preprint, echo=NO, model=NO, history=NO, contact=NO
**
** PARTS
**
*Part, name=Part-1
*Node
      1,           1.,           1.,           1.
      2,           1.,           0.,           1.
      3,           1.,           1.,           0.
      4,           1.,           0.,           0.
      5,           0.,           1.,           1.
      6,           0.,           0.,           1.
      7,           0.,           1.,           0.
      8,           0.,           0.,           0.
*Element, type=C3D8R
1, 5, 6, 8, 7, 1, 2, 4, 3
*Nset, nset=Set-1, generate
 1,  8,  1
*Elset, elset=Set-1
 1,
** Section: Section-1
*Solid Section, elset=Set-1, material=Material-1
,
*End Part
**  
**
** ASSEMBLY
**
*Assembly, name=Assembly
**  
*Instance, name=Part-1-1, part=Part-1
*End Instance
**  
*Nset, nset=Set-1, instance=Part-1-1, generate
 1,  8,  1
*Elset, elset=Set-1, instance=Part-1-1
 1,
*End Assembly
** 
** MATERIALS
** 
*Material, name=Material-1
*Density
7850.,
*Elastic
 2.06e+11, 0.3
** 
** PREDEFINED FIELDS
** 
** Name: Predefined Field-1   Type: Velocity
*Initial Conditions, type=VELOCITY
Set-1, 1, 1.0
** ----------------------------------------------------------------
** 
** STEP: Step-1
** 
*Step, name=Step-1, nlgeom=YES
*Dynamic, Explicit
, 0.1
*Bulk Viscosity
0.06, 1.2
** 
** OUTPUT REQUESTS
** 
*Restart, write, number interval=1, time marks=NO
** 
** FIELD OUTPUT: F-Output-1
** 
*Output, field, variable=PRESELECT, number interval=50
** 
** HISTORY OUTPUT: H-Output-1
** 
*Output, history, variable=PRESELECT
*End Step
